* NGSPICE file created from UART.ext - technology: sky130A

* Black-box entry subcircuit for sky130_fd_sc_hd__tapvpwrvgnd_1 abstract view
.subckt sky130_fd_sc_hd__tapvpwrvgnd_1 VGND VPWR
.ends

* Black-box entry subcircuit for sky130_fd_sc_hd__fill_2 abstract view
.subckt sky130_fd_sc_hd__fill_2 VGND VNB VPB VPWR
.ends

* Black-box entry subcircuit for sky130_fd_sc_hd__or2b_1 abstract view
.subckt sky130_fd_sc_hd__or2b_1 A B_N VGND VNB VPB VPWR X
.ends

* Black-box entry subcircuit for sky130_fd_sc_hd__nand2_1 abstract view
.subckt sky130_fd_sc_hd__nand2_1 A B VGND VNB VPB VPWR Y
.ends

* Black-box entry subcircuit for sky130_fd_sc_hd__clkbuf_1 abstract view
.subckt sky130_fd_sc_hd__clkbuf_1 A VGND VNB VPB VPWR X
.ends

* Black-box entry subcircuit for sky130_fd_sc_hd__mux2_1 abstract view
.subckt sky130_fd_sc_hd__mux2_1 A0 A1 S VGND VNB VPB VPWR X
.ends

* Black-box entry subcircuit for sky130_fd_sc_hd__or4_1 abstract view
.subckt sky130_fd_sc_hd__or4_1 A B C D VGND VNB VPB VPWR X
.ends

* Black-box entry subcircuit for sky130_fd_sc_hd__xnor2_1 abstract view
.subckt sky130_fd_sc_hd__xnor2_1 A B VGND VNB VPB VPWR Y
.ends

* Black-box entry subcircuit for sky130_fd_sc_hd__decap_4 abstract view
.subckt sky130_fd_sc_hd__decap_4 VGND VNB VPB VPWR
.ends

* Black-box entry subcircuit for sky130_fd_sc_hd__decap_3 abstract view
.subckt sky130_fd_sc_hd__decap_3 VGND VNB VPB VPWR
.ends

* Black-box entry subcircuit for sky130_fd_sc_hd__a211o_1 abstract view
.subckt sky130_fd_sc_hd__a211o_1 A1 A2 B1 C1 VGND VNB VPB VPWR X
.ends

* Black-box entry subcircuit for sky130_fd_sc_hd__fill_1 abstract view
.subckt sky130_fd_sc_hd__fill_1 VGND VNB VPB VPWR
.ends

* Black-box entry subcircuit for sky130_fd_sc_hd__o311a_1 abstract view
.subckt sky130_fd_sc_hd__o311a_1 A1 A2 A3 B1 C1 VGND VNB VPB VPWR X
.ends

* Black-box entry subcircuit for sky130_fd_sc_hd__dlygate4sd3_1 abstract view
.subckt sky130_fd_sc_hd__dlygate4sd3_1 A VGND VNB VPB VPWR X
.ends

* Black-box entry subcircuit for sky130_ef_sc_hd__decap_12 abstract view
.subckt sky130_ef_sc_hd__decap_12 VPWR VGND VPB VNB
.ends

* Black-box entry subcircuit for sky130_fd_sc_hd__dfrtp_1 abstract view
.subckt sky130_fd_sc_hd__dfrtp_1 CLK D RESET_B VGND VNB VPB VPWR Q
.ends

* Black-box entry subcircuit for sky130_fd_sc_hd__diode_2 abstract view
.subckt sky130_fd_sc_hd__diode_2 DIODE VGND VNB VPB VPWR
.ends

* Black-box entry subcircuit for sky130_fd_sc_hd__clkbuf_4 abstract view
.subckt sky130_fd_sc_hd__clkbuf_4 A VGND VNB VPB VPWR X
.ends

* Black-box entry subcircuit for sky130_fd_sc_hd__a21oi_1 abstract view
.subckt sky130_fd_sc_hd__a21oi_1 A1 A2 B1 VGND VNB VPB VPWR Y
.ends

* Black-box entry subcircuit for sky130_fd_sc_hd__clkbuf_16 abstract view
.subckt sky130_fd_sc_hd__clkbuf_16 A VGND VNB VPB VPWR X
.ends

* Black-box entry subcircuit for sky130_fd_sc_hd__and3_1 abstract view
.subckt sky130_fd_sc_hd__and3_1 A B C VGND VNB VPB VPWR X
.ends

* Black-box entry subcircuit for sky130_fd_sc_hd__or4_2 abstract view
.subckt sky130_fd_sc_hd__or4_2 A B C D VGND VNB VPB VPWR X
.ends

* Black-box entry subcircuit for sky130_fd_sc_hd__nor3_1 abstract view
.subckt sky130_fd_sc_hd__nor3_1 A B C VGND VNB VPB VPWR Y
.ends

* Black-box entry subcircuit for sky130_fd_sc_hd__nor3b_1 abstract view
.subckt sky130_fd_sc_hd__nor3b_1 A B C_N VGND VNB VPB VPWR Y
.ends

* Black-box entry subcircuit for sky130_fd_sc_hd__nand3_1 abstract view
.subckt sky130_fd_sc_hd__nand3_1 A B C VGND VNB VPB VPWR Y
.ends

* Black-box entry subcircuit for sky130_fd_sc_hd__dfrtp_2 abstract view
.subckt sky130_fd_sc_hd__dfrtp_2 CLK D RESET_B VGND VNB VPB VPWR Q
.ends

* Black-box entry subcircuit for sky130_fd_sc_hd__decap_6 abstract view
.subckt sky130_fd_sc_hd__decap_6 VGND VNB VPB VPWR
.ends

* Black-box entry subcircuit for sky130_fd_sc_hd__o21ai_1 abstract view
.subckt sky130_fd_sc_hd__o21ai_1 A1 A2 B1 VGND VNB VPB VPWR Y
.ends

* Black-box entry subcircuit for sky130_fd_sc_hd__nor2_1 abstract view
.subckt sky130_fd_sc_hd__nor2_1 A B VGND VNB VPB VPWR Y
.ends

* Black-box entry subcircuit for sky130_fd_sc_hd__a21bo_1 abstract view
.subckt sky130_fd_sc_hd__a21bo_1 A1 A2 B1_N VGND VNB VPB VPWR X
.ends

* Black-box entry subcircuit for sky130_fd_sc_hd__o32a_1 abstract view
.subckt sky130_fd_sc_hd__o32a_1 A1 A2 A3 B1 B2 VGND VNB VPB VPWR X
.ends

* Black-box entry subcircuit for sky130_fd_sc_hd__clkbuf_2 abstract view
.subckt sky130_fd_sc_hd__clkbuf_2 A VGND VNB VPB VPWR X
.ends

* Black-box entry subcircuit for sky130_fd_sc_hd__decap_8 abstract view
.subckt sky130_fd_sc_hd__decap_8 VGND VNB VPB VPWR
.ends

* Black-box entry subcircuit for sky130_fd_sc_hd__and2_1 abstract view
.subckt sky130_fd_sc_hd__and2_1 A B VGND VNB VPB VPWR X
.ends

* Black-box entry subcircuit for sky130_fd_sc_hd__inv_2 abstract view
.subckt sky130_fd_sc_hd__inv_2 A VGND VNB VPB VPWR Y
.ends

* Black-box entry subcircuit for sky130_fd_sc_hd__or3b_1 abstract view
.subckt sky130_fd_sc_hd__or3b_1 A B C_N VGND VNB VPB VPWR X
.ends

* Black-box entry subcircuit for sky130_fd_sc_hd__a21o_1 abstract view
.subckt sky130_fd_sc_hd__a21o_1 A1 A2 B1 VGND VNB VPB VPWR X
.ends

* Black-box entry subcircuit for sky130_fd_sc_hd__buf_2 abstract view
.subckt sky130_fd_sc_hd__buf_2 A VGND VNB VPB VPWR X
.ends

* Black-box entry subcircuit for sky130_fd_sc_hd__clkinv_2 abstract view
.subckt sky130_fd_sc_hd__clkinv_2 A VGND VNB VPB VPWR Y
.ends

* Black-box entry subcircuit for sky130_fd_sc_hd__and2b_1 abstract view
.subckt sky130_fd_sc_hd__and2b_1 A_N B VGND VNB VPB VPWR X
.ends

* Black-box entry subcircuit for sky130_fd_sc_hd__a22o_1 abstract view
.subckt sky130_fd_sc_hd__a22o_1 A1 A2 B1 B2 VGND VNB VPB VPWR X
.ends

* Black-box entry subcircuit for sky130_fd_sc_hd__clkinv_4 abstract view
.subckt sky130_fd_sc_hd__clkinv_4 A VGND VNB VPB VPWR Y
.ends

* Black-box entry subcircuit for sky130_fd_sc_hd__a32o_1 abstract view
.subckt sky130_fd_sc_hd__a32o_1 A1 A2 A3 B1 B2 VGND VNB VPB VPWR X
.ends

* Black-box entry subcircuit for sky130_fd_sc_hd__or2_1 abstract view
.subckt sky130_fd_sc_hd__or2_1 A B VGND VNB VPB VPWR X
.ends

* Black-box entry subcircuit for sky130_fd_sc_hd__clkinvlp_4 abstract view
.subckt sky130_fd_sc_hd__clkinvlp_4 A VGND VNB VPB VPWR Y
.ends

* Black-box entry subcircuit for sky130_fd_sc_hd__or4b_2 abstract view
.subckt sky130_fd_sc_hd__or4b_2 A B C D_N VGND VNB VPB VPWR X
.ends

* Black-box entry subcircuit for sky130_fd_sc_hd__o211a_1 abstract view
.subckt sky130_fd_sc_hd__o211a_1 A1 A2 B1 C1 VGND VNB VPB VPWR X
.ends

* Black-box entry subcircuit for sky130_fd_sc_hd__nor3b_2 abstract view
.subckt sky130_fd_sc_hd__nor3b_2 A B C_N VGND VNB VPB VPWR Y
.ends

* Black-box entry subcircuit for sky130_fd_sc_hd__o2bb2a_1 abstract view
.subckt sky130_fd_sc_hd__o2bb2a_1 A1_N A2_N B1 B2 VGND VNB VPB VPWR X
.ends

* Black-box entry subcircuit for sky130_fd_sc_hd__or3_1 abstract view
.subckt sky130_fd_sc_hd__or3_1 A B C VGND VNB VPB VPWR X
.ends

* Black-box entry subcircuit for sky130_fd_sc_hd__o21a_1 abstract view
.subckt sky130_fd_sc_hd__o21a_1 A1 A2 B1 VGND VNB VPB VPWR X
.ends

* Black-box entry subcircuit for sky130_fd_sc_hd__dlymetal6s2s_1 abstract view
.subckt sky130_fd_sc_hd__dlymetal6s2s_1 A VGND VNB VPB VPWR X
.ends

* Black-box entry subcircuit for sky130_fd_sc_hd__a31o_1 abstract view
.subckt sky130_fd_sc_hd__a31o_1 A1 A2 A3 B1 VGND VNB VPB VPWR X
.ends

* Black-box entry subcircuit for sky130_fd_sc_hd__and4_1 abstract view
.subckt sky130_fd_sc_hd__and4_1 A B C D VGND VNB VPB VPWR X
.ends

* Black-box entry subcircuit for sky130_fd_sc_hd__buf_1 abstract view
.subckt sky130_fd_sc_hd__buf_1 A VGND VNB VPB VPWR X
.ends

* Black-box entry subcircuit for sky130_fd_sc_hd__nor2_2 abstract view
.subckt sky130_fd_sc_hd__nor2_2 A B VGND VNB VPB VPWR Y
.ends

* Black-box entry subcircuit for sky130_fd_sc_hd__xor2_1 abstract view
.subckt sky130_fd_sc_hd__xor2_1 A B VGND VNB VPB VPWR X
.ends

* Black-box entry subcircuit for sky130_fd_sc_hd__a2111oi_1 abstract view
.subckt sky130_fd_sc_hd__a2111oi_1 A1 A2 B1 C1 D1 VGND VNB VPB VPWR Y
.ends

* Black-box entry subcircuit for sky130_fd_sc_hd__nor4_1 abstract view
.subckt sky130_fd_sc_hd__nor4_1 A B C D VGND VNB VPB VPWR Y
.ends

* Black-box entry subcircuit for sky130_fd_sc_hd__dfstp_1 abstract view
.subckt sky130_fd_sc_hd__dfstp_1 CLK D SET_B VGND VNB VPB VPWR Q
.ends

* Black-box entry subcircuit for sky130_fd_sc_hd__and4bb_2 abstract view
.subckt sky130_fd_sc_hd__and4bb_2 A_N B_N C D VGND VNB VPB VPWR X
.ends

* Black-box entry subcircuit for sky130_fd_sc_hd__or4b_1 abstract view
.subckt sky130_fd_sc_hd__or4b_1 A B C D_N VGND VNB VPB VPWR X
.ends

* Black-box entry subcircuit for sky130_fd_sc_hd__a221o_1 abstract view
.subckt sky130_fd_sc_hd__a221o_1 A1 A2 B1 B2 C1 VGND VNB VPB VPWR X
.ends

* Black-box entry subcircuit for sky130_fd_sc_hd__o21ba_1 abstract view
.subckt sky130_fd_sc_hd__o21ba_1 A1 A2 B1_N VGND VNB VPB VPWR X
.ends

* Black-box entry subcircuit for sky130_fd_sc_hd__nor2b_2 abstract view
.subckt sky130_fd_sc_hd__nor2b_2 A B_N VGND VNB VPB VPWR Y
.ends

* Black-box entry subcircuit for sky130_fd_sc_hd__and4b_1 abstract view
.subckt sky130_fd_sc_hd__and4b_1 A_N B C D VGND VNB VPB VPWR X
.ends

* Black-box entry subcircuit for sky130_fd_sc_hd__o22ai_1 abstract view
.subckt sky130_fd_sc_hd__o22ai_1 A1 A2 B1 B2 VGND VNB VPB VPWR Y
.ends

* Black-box entry subcircuit for sky130_fd_sc_hd__a2111o_1 abstract view
.subckt sky130_fd_sc_hd__a2111o_1 A1 A2 B1 C1 D1 VGND VNB VPB VPWR X
.ends

* Black-box entry subcircuit for sky130_fd_sc_hd__a211oi_1 abstract view
.subckt sky130_fd_sc_hd__a211oi_1 A1 A2 B1 C1 VGND VNB VPB VPWR Y
.ends

* Black-box entry subcircuit for sky130_fd_sc_hd__a311o_1 abstract view
.subckt sky130_fd_sc_hd__a311o_1 A1 A2 A3 B1 C1 VGND VNB VPB VPWR X
.ends

* Black-box entry subcircuit for sky130_fd_sc_hd__o221a_1 abstract view
.subckt sky130_fd_sc_hd__o221a_1 A1 A2 B1 B2 C1 VGND VNB VPB VPWR X
.ends

.subckt UART VGND VPWR clk div[0] div[10] div[11] div[1] div[2] div[3] div[4] div[5]
+ div[6] div[7] div[8] div[9] framingError parityEnable parityError parityErrorValid
+ parityType rst rx rx_busy rx_done rx_out[0] rx_out[1] rx_out[2] rx_out[3] rx_out[4]
+ rx_out[5] rx_out[6] rx_out[7] tx tx_busy tx_data_valid tx_done tx_in[0] tx_in[1]
+ tx_in[2] tx_in[3] tx_in[4] tx_in[5] tx_in[6] tx_in[7]
XTAP_TAPCELL_ROW_32_183 VGND VPWR sky130_fd_sc_hd__tapvpwrvgnd_1
XFILLER_0_17_200 VGND VGND VPWR VPWR sky130_fd_sc_hd__fill_2
XFILLER_0_4_171 VGND VGND VPWR VPWR sky130_fd_sc_hd__fill_2
XTAP_TAPCELL_ROW_9_104 VGND VPWR sky130_fd_sc_hd__tapvpwrvgnd_1
X_363_ BRG.counter\[0\] net1 VGND VGND VPWR VPWR _143_ sky130_fd_sc_hd__or2b_1
X_294_ _076_ _070_ VGND VGND VPWR VPWR _084_ sky130_fd_sc_hd__nand2_1
X_432_ _197_ VGND VGND VPWR VPWR _012_ sky130_fd_sc_hd__clkbuf_1
X_501_ txtop.serializer.memory\[4\] net21 net17 VGND VGND VPWR VPWR _244_ sky130_fd_sc_hd__mux2_1
X_346_ net7 net8 net9 net10 VGND VGND VPWR VPWR _126_ sky130_fd_sc_hd__or4_1
X_415_ BRG.counter\[10\] _183_ VGND VGND VPWR VPWR _185_ sky130_fd_sc_hd__xnor2_1
XTAP_TAPCELL_ROW_20_142 VGND VPWR sky130_fd_sc_hd__tapvpwrvgnd_1
XFILLER_0_18_29 VGND VGND VPWR VPWR sky130_fd_sc_hd__decap_4
XPHY_EDGE_ROW_0_Left_34 VGND VGND VPWR VPWR sky130_fd_sc_hd__decap_3
XTAP_TAPCELL_ROW_8_99 VGND VPWR sky130_fd_sc_hd__tapvpwrvgnd_1
X_277_ _067_ _068_ _064_ net42 VGND VGND VPWR VPWR net29 sky130_fd_sc_hd__a211o_1
XFILLER_0_6_200 VGND VGND VPWR VPWR sky130_fd_sc_hd__fill_2
XFILLER_0_28_125 VGND VGND VPWR VPWR sky130_fd_sc_hd__fill_1
X_329_ _093_ _095_ _100_ _110_ _111_ VGND VGND VPWR VPWR rxtop.fsm_rx.BAUD_COUNTER_Next\[3\]
+ sky130_fd_sc_hd__o311a_1
XFILLER_0_10_96 VGND VGND VPWR VPWR sky130_fd_sc_hd__fill_2
XFILLER_0_10_85 VGND VGND VPWR VPWR sky130_fd_sc_hd__fill_2
XFILLER_0_0_29 VGND VGND VPWR VPWR sky130_fd_sc_hd__fill_2
XFILLER_0_27_191 VGND VGND VPWR VPWR sky130_fd_sc_hd__decap_3
XFILLER_0_19_72 VGND VGND VPWR VPWR sky130_fd_sc_hd__fill_2
XFILLER_0_25_117 VGND VGND VPWR VPWR sky130_fd_sc_hd__fill_1
XTAP_TAPCELL_ROW_5_89 VGND VPWR sky130_fd_sc_hd__tapvpwrvgnd_1
XFILLER_0_30_197 VGND VGND VPWR VPWR sky130_fd_sc_hd__decap_4
XFILLER_0_30_153 VGND VGND VPWR VPWR sky130_fd_sc_hd__decap_4
Xhold63 BRG.counter\[11\] VGND VGND VPWR VPWR net119 sky130_fd_sc_hd__dlygate4sd3_1
XFILLER_0_26_29 VPWR VGND VPWR VGND sky130_ef_sc_hd__decap_12
Xhold30 rxtop.pCheck.memory\[3\] VGND VGND VPWR VPWR net86 sky130_fd_sc_hd__dlygate4sd3_1
Xhold41 net35 VGND VGND VPWR VPWR net97 sky130_fd_sc_hd__dlygate4sd3_1
Xhold52 txtop.fsm_tx.BAUD_COUNTER\[0\] VGND VGND VPWR VPWR net108 sky130_fd_sc_hd__dlygate4sd3_1
X_594_ clknet_3_0__leaf_clk net62 net45 VGND VGND VPWR VPWR txtop.serializer.memory\[5\]
+ sky130_fd_sc_hd__dfrtp_1
XANTENNA_input18_A tx_in[0] VGND VGND VPWR VPWR sky130_fd_sc_hd__diode_2
XFILLER_0_32_83 VGND VGND VPWR VPWR sky130_fd_sc_hd__fill_1
XFILLER_0_16_95 VGND VGND VPWR VPWR sky130_fd_sc_hd__fill_2
Xoutput31 net31 VGND VGND VPWR VPWR rx_out[0] sky130_fd_sc_hd__clkbuf_4
XFILLER_0_26_201 VGND VGND VPWR VPWR sky130_fd_sc_hd__fill_1
X_577_ clknet_3_6__leaf_clk _007_ net48 VGND VGND VPWR VPWR BRG.counter\[5\] sky130_fd_sc_hd__dfrtp_1
XTAP_TAPCELL_ROW_18_137 VGND VPWR sky130_fd_sc_hd__tapvpwrvgnd_1
XTAP_TAPCELL_ROW_2_79 VGND VPWR sky130_fd_sc_hd__tapvpwrvgnd_1
XTAP_TAPCELL_ROW_32_184 VGND VPWR sky130_fd_sc_hd__tapvpwrvgnd_1
XFILLER_0_7_82 VGND VGND VPWR VPWR sky130_fd_sc_hd__decap_3
XTAP_TAPCELL_ROW_9_105 VGND VPWR sky130_fd_sc_hd__tapvpwrvgnd_1
X_362_ _138_ _141_ BRG.counter\[2\] VGND VGND VPWR VPWR _142_ sky130_fd_sc_hd__a21oi_1
Xclkbuf_3_6__f_clk clknet_0_clk VGND VGND VPWR VPWR clknet_3_6__leaf_clk sky130_fd_sc_hd__clkbuf_16
X_293_ txtop.fsm_tx.BAUD_COUNTER\[1\] txtop.fsm_tx.BAUD_COUNTER\[0\] _075_ VGND VGND
+ VPWR VPWR _083_ sky130_fd_sc_hd__and3_1
X_500_ _243_ VGND VGND VPWR VPWR _034_ sky130_fd_sc_hd__clkbuf_1
X_431_ _191_ _068_ _196_ VGND VGND VPWR VPWR _197_ sky130_fd_sc_hd__mux2_1
XTAP_TAPCELL_ROW_20_143 VGND VPWR sky130_fd_sc_hd__tapvpwrvgnd_1
X_345_ net1 net4 net5 net6 VGND VGND VPWR VPWR _125_ sky130_fd_sc_hd__or4_2
X_414_ _167_ _183_ _184_ VGND VGND VPWR VPWR _011_ sky130_fd_sc_hd__nor3_1
XFILLER_0_24_40 VGND VGND VPWR VPWR sky130_fd_sc_hd__fill_2
XTAP_TAPCELL_ROW_11_110 VGND VPWR sky130_fd_sc_hd__tapvpwrvgnd_1
X_276_ _066_ _068_ rxtop.fsm_rx.Current\[1\] VGND VGND VPWR VPWR _069_ sky130_fd_sc_hd__nor3b_1
XPHY_EDGE_ROW_21_Right_21 VGND VGND VPWR VPWR sky130_fd_sc_hd__decap_3
XPHY_EDGE_ROW_12_Right_12 VGND VGND VPWR VPWR sky130_fd_sc_hd__decap_3
XFILLER_0_4_83 VGND VGND VPWR VPWR sky130_fd_sc_hd__fill_1
XPHY_EDGE_ROW_30_Right_30 VGND VGND VPWR VPWR sky130_fd_sc_hd__decap_3
X_328_ rxtop.fsm_rx.BAUD_COUNTER\[2\] rxtop.fsm_rx.BAUD_COUNTER\[3\] _104_ VGND VGND
+ VPWR VPWR _111_ sky130_fd_sc_hd__nand3_1
XFILLER_0_31_19 VGND VGND VPWR VPWR sky130_fd_sc_hd__decap_4
XFILLER_0_24_195 VGND VGND VPWR VPWR sky130_fd_sc_hd__fill_1
XFILLER_0_30_132 VGND VGND VPWR VPWR sky130_fd_sc_hd__fill_2
Xhold31 _052_ VGND VGND VPWR VPWR net87 sky130_fd_sc_hd__dlygate4sd3_1
Xhold20 _053_ VGND VGND VPWR VPWR net76 sky130_fd_sc_hd__dlygate4sd3_1
Xhold42 net36 VGND VGND VPWR VPWR net98 sky130_fd_sc_hd__dlygate4sd3_1
Xhold53 txtop.fsm_tx.BAUD_COUNTER_Next\[0\] VGND VGND VPWR VPWR net109 sky130_fd_sc_hd__dlygate4sd3_1
Xhold64 txtop.serializer.ptr\[2\] VGND VGND VPWR VPWR net120 sky130_fd_sc_hd__dlygate4sd3_1
XFILLER_0_21_110 VGND VGND VPWR VPWR sky130_fd_sc_hd__fill_2
XFILLER_0_16_63 VPWR VGND VPWR VGND sky130_ef_sc_hd__decap_12
X_593_ clknet_3_0__leaf_clk net67 net45 VGND VGND VPWR VPWR txtop.serializer.memory\[4\]
+ sky130_fd_sc_hd__dfrtp_1
XFILLER_0_6_29 VGND VGND VPWR VPWR sky130_fd_sc_hd__decap_3
XFILLER_0_12_121 VPWR VGND VPWR VGND sky130_ef_sc_hd__decap_12
XPHY_EDGE_ROW_6_Right_6 VGND VGND VPWR VPWR sky130_fd_sc_hd__decap_3
XFILLER_0_8_137 VGND VGND VPWR VPWR sky130_fd_sc_hd__decap_3
Xoutput32 net32 VGND VGND VPWR VPWR rx_out[1] sky130_fd_sc_hd__clkbuf_4
X_576_ clknet_3_3__leaf_clk _006_ net48 VGND VGND VPWR VPWR BRG.counter\[4\] sky130_fd_sc_hd__dfrtp_2
XFILLER_0_7_192 VGND VGND VPWR VPWR sky130_fd_sc_hd__decap_6
XTAP_TAPCELL_ROW_32_185 VGND VPWR sky130_fd_sc_hd__tapvpwrvgnd_1
X_361_ net1 net4 net5 VGND VGND VPWR VPWR _141_ sky130_fd_sc_hd__o21ai_1
XTAP_TAPCELL_ROW_23_152 VGND VPWR sky130_fd_sc_hd__tapvpwrvgnd_1
X_292_ _081_ _082_ VGND VGND VPWR VPWR txtop.fsm_tx.BAUD_COUNTER_Next\[0\] sky130_fd_sc_hd__nor2_1
XFILLER_0_4_195 VGND VGND VPWR VPWR sky130_fd_sc_hd__fill_1
XFILLER_0_7_50 VGND VGND VPWR VPWR sky130_fd_sc_hd__fill_2
X_430_ rx_synchronizer.rx_out _190_ _195_ VGND VGND VPWR VPWR _196_ sky130_fd_sc_hd__a21bo_1
X_559_ clknet_3_6__leaf_clk _021_ net53 VGND VGND VPWR VPWR net35 sky130_fd_sc_hd__dfrtp_1
XFILLER_0_1_110 VGND VGND VPWR VPWR sky130_fd_sc_hd__fill_2
XTAP_TAPCELL_ROW_20_144 VGND VPWR sky130_fd_sc_hd__tapvpwrvgnd_1
X_413_ BRG.counter\[9\] _181_ VGND VGND VPWR VPWR _184_ sky130_fd_sc_hd__nor2_1
XTAP_TAPCELL_ROW_11_111 VGND VPWR sky130_fd_sc_hd__tapvpwrvgnd_1
X_344_ txtop.fsm_tx.Current\[2\] _114_ _123_ _124_ txtop.data_mux_wire VGND VGND VPWR
+ VPWR net39 sky130_fd_sc_hd__o32a_1
X_275_ rxtop.fsm_rx.Current\[0\] VGND VGND VPWR VPWR _068_ sky130_fd_sc_hd__clkbuf_2
XFILLER_0_24_96 VGND VGND VPWR VPWR sky130_fd_sc_hd__fill_2
XFILLER_0_28_149 VGND VGND VPWR VPWR sky130_fd_sc_hd__decap_3
X_327_ _097_ _108_ VGND VGND VPWR VPWR _110_ sky130_fd_sc_hd__nand2_1
XFILLER_0_9_29 VGND VGND VPWR VPWR sky130_fd_sc_hd__decap_3
XFILLER_0_33_163 VGND VGND VPWR VPWR sky130_fd_sc_hd__decap_4
XFILLER_0_33_141 VGND VGND VPWR VPWR sky130_fd_sc_hd__fill_2
Xhold43 net32 VGND VGND VPWR VPWR net99 sky130_fd_sc_hd__dlygate4sd3_1
Xhold32 net34 VGND VGND VPWR VPWR net88 sky130_fd_sc_hd__dlygate4sd3_1
XFILLER_0_21_177 VGND VGND VPWR VPWR sky130_fd_sc_hd__decap_4
XFILLER_0_21_166 VGND VGND VPWR VPWR sky130_fd_sc_hd__fill_2
Xhold21 rxtop.pCheck.memory\[6\] VGND VGND VPWR VPWR net77 sky130_fd_sc_hd__dlygate4sd3_1
Xhold10 txtop.serializer.memory\[5\] VGND VGND VPWR VPWR net66 sky130_fd_sc_hd__dlygate4sd3_1
Xhold65 txtop.serializer.ptr\[2\] VGND VGND VPWR VPWR net121 sky130_fd_sc_hd__dlygate4sd3_1
X_592_ clknet_3_0__leaf_clk _035_ net45 VGND VGND VPWR VPWR txtop.serializer.memory\[3\]
+ sky130_fd_sc_hd__dfrtp_1
Xhold54 txtop.fsm_tx.Current\[0\] VGND VGND VPWR VPWR net110 sky130_fd_sc_hd__dlygate4sd3_1
XFILLER_0_32_85 VGND VGND VPWR VPWR sky130_fd_sc_hd__decap_4
XFILLER_0_32_41 VPWR VGND VPWR VGND sky130_ef_sc_hd__decap_12
XFILLER_0_29_200 VGND VGND VPWR VPWR sky130_fd_sc_hd__fill_2
XFILLER_0_16_75 VGND VGND VPWR VPWR sky130_fd_sc_hd__decap_8
XFILLER_0_12_177 VGND VGND VPWR VPWR sky130_fd_sc_hd__decap_3
XFILLER_0_12_133 VGND VGND VPWR VPWR sky130_fd_sc_hd__decap_6
Xoutput33 net33 VGND VGND VPWR VPWR rx_out[2] sky130_fd_sc_hd__clkbuf_4
X_575_ clknet_3_6__leaf_clk _005_ net55 VGND VGND VPWR VPWR BRG.counter\[3\] sky130_fd_sc_hd__dfrtp_1
XANTENNA_input23_A tx_in[5] VGND VGND VPWR VPWR sky130_fd_sc_hd__diode_2
XFILLER_0_7_160 VGND VGND VPWR VPWR sky130_fd_sc_hd__decap_4
XANTENNA_clkbuf_3_1__f_clk_A clknet_0_clk VGND VGND VPWR VPWR sky130_fd_sc_hd__diode_2
XTAP_TAPCELL_ROW_32_186 VGND VPWR sky130_fd_sc_hd__tapvpwrvgnd_1
X_360_ BRG.counter\[3\] _139_ VGND VGND VPWR VPWR _140_ sky130_fd_sc_hd__xnor2_1
XTAP_TAPCELL_ROW_23_153 VGND VPWR sky130_fd_sc_hd__tapvpwrvgnd_1
X_291_ txtop.fsm_tx.BAUD_COUNTER\[0\] _075_ VGND VGND VPWR VPWR _082_ sky130_fd_sc_hd__and2_1
XFILLER_0_4_141 VGND VGND VPWR VPWR sky130_fd_sc_hd__decap_4
X_558_ clknet_3_6__leaf_clk _020_ net54 VGND VGND VPWR VPWR net34 sky130_fd_sc_hd__dfrtp_1
XTAP_TAPCELL_ROW_14_120 VGND VPWR sky130_fd_sc_hd__tapvpwrvgnd_1
X_489_ net17 _234_ VGND VGND VPWR VPWR _235_ sky130_fd_sc_hd__nor2_1
XPHY_EDGE_ROW_19_Left_53 VGND VGND VPWR VPWR sky130_fd_sc_hd__decap_3
XFILLER_0_1_155 VPWR VGND VPWR VGND sky130_ef_sc_hd__decap_12
X_412_ BRG.counter\[9\] _181_ VGND VGND VPWR VPWR _183_ sky130_fd_sc_hd__and2_1
XTAP_TAPCELL_ROW_11_112 VGND VPWR sky130_fd_sc_hd__tapvpwrvgnd_1
X_274_ _066_ VGND VGND VPWR VPWR _067_ sky130_fd_sc_hd__inv_2
X_343_ txtop.fsm_tx.Current\[2\] txtop.fsm_tx.Current\[0\] txtop.fsm_tx.Current\[1\]
+ VGND VGND VPWR VPWR _124_ sky130_fd_sc_hd__or3b_1
XFILLER_0_4_41 VPWR VGND VPWR VGND sky130_ef_sc_hd__decap_12
XFILLER_0_4_85 VGND VGND VPWR VPWR sky130_fd_sc_hd__fill_2
XPHY_EDGE_ROW_4_Left_38 VGND VGND VPWR VPWR sky130_fd_sc_hd__decap_3
XFILLER_0_28_139 VGND VGND VPWR VPWR sky130_fd_sc_hd__fill_1
XFILLER_0_28_117 VGND VGND VPWR VPWR sky130_fd_sc_hd__decap_8
XFILLER_0_19_64 VGND VGND VPWR VPWR sky130_fd_sc_hd__decap_8
X_326_ _109_ VGND VGND VPWR VPWR rxtop.fsm_rx.BAUD_COUNTER_Next\[2\] sky130_fd_sc_hd__clkbuf_1
XFILLER_0_10_55 VGND VGND VPWR VPWR sky130_fd_sc_hd__fill_1
XTAP_TAPCELL_ROW_0_70 VGND VPWR sky130_fd_sc_hd__tapvpwrvgnd_1
XFILLER_0_33_197 VGND VGND VPWR VPWR sky130_fd_sc_hd__decap_4
X_309_ rxtop.fsm_rx.Current\[0\] _094_ _064_ VGND VGND VPWR VPWR _095_ sky130_fd_sc_hd__a21o_1
XFILLER_0_24_197 VGND VGND VPWR VPWR sky130_fd_sc_hd__fill_1
XFILLER_0_21_98 VPWR VGND VPWR VGND sky130_ef_sc_hd__decap_12
Xhold44 _018_ VGND VGND VPWR VPWR net100 sky130_fd_sc_hd__dlygate4sd3_1
Xhold33 _019_ VGND VGND VPWR VPWR net89 sky130_fd_sc_hd__dlygate4sd3_1
Xhold22 _055_ VGND VGND VPWR VPWR net78 sky130_fd_sc_hd__dlygate4sd3_1
Xhold11 _036_ VGND VGND VPWR VPWR net67 sky130_fd_sc_hd__dlygate4sd3_1
X_591_ clknet_3_0__leaf_clk _034_ net45 VGND VGND VPWR VPWR txtop.serializer.memory\[2\]
+ sky130_fd_sc_hd__dfrtp_1
XPHY_EDGE_ROW_7_Left_41 VGND VGND VPWR VPWR sky130_fd_sc_hd__decap_3
Xhold55 txtop.serializer.memory\[1\] VGND VGND VPWR VPWR net111 sky130_fd_sc_hd__dlygate4sd3_1
XFILLER_0_32_53 VPWR VGND VPWR VGND sky130_ef_sc_hd__decap_12
XPHY_EDGE_ROW_33_Left_67 VGND VGND VPWR VPWR sky130_fd_sc_hd__decap_3
XFILLER_0_32_3 VPWR VGND VPWR VGND sky130_ef_sc_hd__decap_12
Xoutput34 net34 VGND VGND VPWR VPWR rx_out[3] sky130_fd_sc_hd__buf_2
X_574_ clknet_3_6__leaf_clk _004_ net55 VGND VGND VPWR VPWR BRG.counter\[2\] sky130_fd_sc_hd__dfrtp_1
XTAP_TAPCELL_ROW_26_162 VGND VPWR sky130_fd_sc_hd__tapvpwrvgnd_1
XANTENNA_input16_A rx VGND VGND VPWR VPWR sky130_fd_sc_hd__diode_2
XANTENNA_input8_A div[5] VGND VGND VPWR VPWR sky130_fd_sc_hd__diode_2
XFILLER_0_7_41 VGND VGND VPWR VPWR sky130_fd_sc_hd__fill_1
XFILLER_0_7_74 VGND VGND VPWR VPWR sky130_fd_sc_hd__fill_2
X_557_ clknet_3_7__leaf_clk net89 net54 VGND VGND VPWR VPWR net33 sky130_fd_sc_hd__dfrtp_1
XTAP_TAPCELL_ROW_23_154 VGND VPWR sky130_fd_sc_hd__tapvpwrvgnd_1
X_290_ net108 _075_ _080_ VGND VGND VPWR VPWR _081_ sky130_fd_sc_hd__o21ai_1
XTAP_TAPCELL_ROW_14_121 VGND VPWR sky130_fd_sc_hd__tapvpwrvgnd_1
X_488_ _228_ _231_ _078_ VGND VGND VPWR VPWR _234_ sky130_fd_sc_hd__a21oi_1
XFILLER_0_1_167 VGND VGND VPWR VPWR sky130_fd_sc_hd__fill_1
X_411_ _167_ _181_ _182_ VGND VGND VPWR VPWR _010_ sky130_fd_sc_hd__nor3_1
X_342_ _116_ _121_ _122_ VGND VGND VPWR VPWR _123_ sky130_fd_sc_hd__a21oi_1
X_273_ rxtop.fsm_rx.Current\[2\] VGND VGND VPWR VPWR _066_ sky130_fd_sc_hd__clkbuf_2
X_609_ clknet_3_7__leaf_clk net87 net54 VGND VGND VPWR VPWR rxtop.pCheck.memory\[3\]
+ sky130_fd_sc_hd__dfrtp_1
XFILLER_0_24_65 VGND VGND VPWR VPWR sky130_fd_sc_hd__decap_4
XPHY_EDGE_ROW_20_Left_54 VGND VGND VPWR VPWR sky130_fd_sc_hd__decap_3
XFILLER_0_4_53 VGND VGND VPWR VPWR sky130_fd_sc_hd__fill_2
XFILLER_0_4_75 VGND VGND VPWR VPWR sky130_fd_sc_hd__decap_8
XFILLER_0_19_10 VPWR VGND VPWR VGND sky130_ef_sc_hd__decap_12
X_325_ _102_ _107_ _108_ VGND VGND VPWR VPWR _109_ sky130_fd_sc_hd__and3_1
XTAP_TAPCELL_ROW_0_71 VGND VPWR sky130_fd_sc_hd__tapvpwrvgnd_1
XFILLER_0_10_12 VGND VGND VPWR VPWR sky130_fd_sc_hd__decap_3
XFILLER_0_33_132 VGND VGND VPWR VPWR sky130_fd_sc_hd__fill_2
Xclkload0 clknet_3_0__leaf_clk VGND VGND VPWR VPWR clkload0/Y sky130_fd_sc_hd__clkinv_2
XFILLER_0_21_44 VGND VGND VPWR VPWR sky130_fd_sc_hd__fill_2
X_308_ _066_ rxtop.fsm_rx.Current\[1\] VGND VGND VPWR VPWR _094_ sky130_fd_sc_hd__and2b_1
Xhold23 rxtop.pCheck.memory\[1\] VGND VGND VPWR VPWR net79 sky130_fd_sc_hd__dlygate4sd3_1
XFILLER_0_30_124 VGND VGND VPWR VPWR sky130_fd_sc_hd__decap_8
Xhold34 txtop.fsm_tx.BAUD_COUNTER\[1\] VGND VGND VPWR VPWR net90 sky130_fd_sc_hd__dlygate4sd3_1
Xhold12 txtop.fsm_tx.BAUD_COUNTER\[3\] VGND VGND VPWR VPWR net68 sky130_fd_sc_hd__dlygate4sd3_1
Xhold45 rxtop.fsm_rx.BAUD_COUNTER\[0\] VGND VGND VPWR VPWR net101 sky130_fd_sc_hd__dlygate4sd3_1
XFILLER_0_15_165 VGND VGND VPWR VPWR sky130_fd_sc_hd__decap_3
Xhold56 txtop.fsm_tx.Current\[1\] VGND VGND VPWR VPWR net112 sky130_fd_sc_hd__dlygate4sd3_1
X_590_ clknet_3_0__leaf_clk _033_ net45 VGND VGND VPWR VPWR txtop.serializer.memory\[1\]
+ sky130_fd_sc_hd__dfrtp_1
XFILLER_0_32_98 VGND VGND VPWR VPWR sky130_fd_sc_hd__decap_4
XFILLER_0_32_65 VGND VGND VPWR VPWR sky130_fd_sc_hd__fill_1
XFILLER_0_21_124 VPWR VGND VPWR VGND sky130_ef_sc_hd__decap_12
XFILLER_0_21_113 VGND VGND VPWR VPWR sky130_fd_sc_hd__decap_8
XFILLER_0_16_99 VPWR VGND VPWR VGND sky130_ef_sc_hd__decap_12
XANTENNA_clkbuf_0_clk_A clk VGND VGND VPWR VPWR sky130_fd_sc_hd__diode_2
XTAP_TAPCELL_ROW_6_92 VGND VPWR sky130_fd_sc_hd__tapvpwrvgnd_1
XFILLER_0_25_3 VPWR VGND VPWR VGND sky130_ef_sc_hd__decap_12
Xoutput35 net35 VGND VGND VPWR VPWR rx_out[4] sky130_fd_sc_hd__buf_2
XFILLER_0_7_140 VGND VGND VPWR VPWR sky130_fd_sc_hd__decap_4
XPHY_EDGE_ROW_28_Right_28 VGND VGND VPWR VPWR sky130_fd_sc_hd__decap_3
X_573_ clknet_3_7__leaf_clk _003_ net55 VGND VGND VPWR VPWR BRG.counter\[1\] sky130_fd_sc_hd__dfrtp_2
XTAP_TAPCELL_ROW_26_163 VGND VPWR sky130_fd_sc_hd__tapvpwrvgnd_1
XPHY_EDGE_ROW_19_Right_19 VGND VGND VPWR VPWR sky130_fd_sc_hd__decap_3
Xclkbuf_3_1__f_clk clknet_0_clk VGND VGND VPWR VPWR clknet_3_1__leaf_clk sky130_fd_sc_hd__clkbuf_16
XFILLER_0_27_65 VGND VGND VPWR VPWR sky130_fd_sc_hd__fill_1
XFILLER_0_27_43 VGND VGND VPWR VPWR sky130_fd_sc_hd__decap_8
X_556_ clknet_3_7__leaf_clk net100 net53 VGND VGND VPWR VPWR net32 sky130_fd_sc_hd__dfrtp_1
XTAP_TAPCELL_ROW_14_122 VGND VPWR sky130_fd_sc_hd__tapvpwrvgnd_1
XFILLER_0_1_102 VGND VGND VPWR VPWR sky130_fd_sc_hd__decap_8
XTAP_TAPCELL_ROW_3_82 VGND VPWR sky130_fd_sc_hd__tapvpwrvgnd_1
X_487_ _233_ VGND VGND VPWR VPWR _031_ sky130_fd_sc_hd__clkbuf_1
X_410_ BRG.counter\[7\] _178_ BRG.counter\[8\] VGND VGND VPWR VPWR _182_ sky130_fd_sc_hd__a21oi_1
X_341_ _116_ _121_ txtop.fsm_tx.Current\[1\] VGND VGND VPWR VPWR _122_ sky130_fd_sc_hd__o21ai_1
X_272_ _065_ VGND VGND VPWR VPWR net30 sky130_fd_sc_hd__inv_2
X_608_ clknet_3_7__leaf_clk net72 net54 VGND VGND VPWR VPWR rxtop.pCheck.memory\[2\]
+ sky130_fd_sc_hd__dfrtp_1
XFILLER_0_24_88 VGND VGND VPWR VPWR sky130_fd_sc_hd__decap_8
XFILLER_0_24_55 VGND VGND VPWR VPWR sky130_fd_sc_hd__decap_3
X_539_ net84 _259_ _260_ net38 VGND VGND VPWR VPWR _056_ sky130_fd_sc_hd__a22o_1
XFILLER_0_4_98 VGND VGND VPWR VPWR sky130_fd_sc_hd__fill_1
XFILLER_0_19_22 VGND VGND VPWR VPWR sky130_fd_sc_hd__decap_4
X_324_ rxtop.fsm_rx.BAUD_COUNTER\[2\] _104_ VGND VGND VPWR VPWR _108_ sky130_fd_sc_hd__nand2_1
XFILLER_0_10_24 VGND VGND VPWR VPWR sky130_fd_sc_hd__decap_4
XTAP_TAPCELL_ROW_0_72 VGND VPWR sky130_fd_sc_hd__tapvpwrvgnd_1
Xclkload1 clknet_3_1__leaf_clk VGND VGND VPWR VPWR clkload1/Y sky130_fd_sc_hd__clkinv_4
XFILLER_0_21_34 VGND VGND VPWR VPWR sky130_fd_sc_hd__decap_4
XFILLER_0_1_55 VGND VGND VPWR VPWR sky130_fd_sc_hd__fill_1
X_307_ net42 _092_ VGND VGND VPWR VPWR _093_ sky130_fd_sc_hd__and2_1
Xhold24 _050_ VGND VGND VPWR VPWR net80 sky130_fd_sc_hd__dlygate4sd3_1
Xhold13 rxtop.pCheck.memory\[0\] VGND VGND VPWR VPWR net69 sky130_fd_sc_hd__dlygate4sd3_1
Xhold57 txtop.pCalc.memory\[4\] VGND VGND VPWR VPWR net113 sky130_fd_sc_hd__dlygate4sd3_1
XFILLER_0_15_111 VGND VGND VPWR VPWR sky130_fd_sc_hd__fill_1
XFILLER_0_1_77 VGND VGND VPWR VPWR sky130_fd_sc_hd__fill_2
Xhold35 rxtop.deserializer.ptr\[2\] VGND VGND VPWR VPWR net91 sky130_fd_sc_hd__dlygate4sd3_1
Xhold46 rxtop.deserializer.ptr\[1\] VGND VGND VPWR VPWR net102 sky130_fd_sc_hd__dlygate4sd3_1
XFILLER_0_32_77 VGND VGND VPWR VPWR sky130_fd_sc_hd__decap_6
XFILLER_0_21_136 VGND VGND VPWR VPWR sky130_fd_sc_hd__decap_8
XFILLER_0_16_89 VGND VGND VPWR VPWR sky130_fd_sc_hd__decap_3
XTAP_TAPCELL_ROW_6_93 VGND VPWR sky130_fd_sc_hd__tapvpwrvgnd_1
XFILLER_0_20_180 VGND VGND VPWR VPWR sky130_fd_sc_hd__decap_4
XFILLER_0_18_3 VGND VGND VPWR VPWR sky130_fd_sc_hd__fill_2
XFILLER_0_12_169 VGND VGND VPWR VPWR sky130_fd_sc_hd__decap_8
XFILLER_0_12_147 VPWR VGND VPWR VGND sky130_ef_sc_hd__decap_12
XTAP_TAPCELL_ROW_26_164 VGND VPWR sky130_fd_sc_hd__tapvpwrvgnd_1
X_572_ clknet_3_6__leaf_clk _000_ net55 VGND VGND VPWR VPWR BRG.counter\[0\] sky130_fd_sc_hd__dfrtp_2
Xoutput36 net36 VGND VGND VPWR VPWR rx_out[5] sky130_fd_sc_hd__buf_2
XFILLER_0_9_6 VGND VGND VPWR VPWR sky130_fd_sc_hd__fill_2
XFILLER_0_27_55 VGND VGND VPWR VPWR sky130_fd_sc_hd__fill_1
XTAP_TAPCELL_ROW_17_131 VGND VPWR sky130_fd_sc_hd__tapvpwrvgnd_1
XFILLER_0_4_122 VPWR VGND VPWR VGND sky130_ef_sc_hd__decap_12
XFILLER_0_7_3 VGND VGND VPWR VPWR sky130_fd_sc_hd__fill_2
X_555_ clknet_3_7__leaf_clk net82 net53 VGND VGND VPWR VPWR net31 sky130_fd_sc_hd__dfrtp_1
XTAP_TAPCELL_ROW_14_123 VGND VPWR sky130_fd_sc_hd__tapvpwrvgnd_1
XFILLER_0_13_57 VPWR VGND VPWR VGND sky130_ef_sc_hd__decap_12
XANTENNA_input21_A tx_in[3] VGND VGND VPWR VPWR sky130_fd_sc_hd__diode_2
XTAP_TAPCELL_ROW_3_83 VGND VPWR sky130_fd_sc_hd__tapvpwrvgnd_1
X_486_ txtop.fsm_tx.Current\[2\] _232_ _229_ VGND VGND VPWR VPWR _233_ sky130_fd_sc_hd__mux2_1
X_607_ clknet_3_7__leaf_clk net80 net54 VGND VGND VPWR VPWR rxtop.pCheck.memory\[1\]
+ sky130_fd_sc_hd__dfrtp_1
XFILLER_0_24_78 VGND VGND VPWR VPWR sky130_fd_sc_hd__decap_6
X_538_ net77 _259_ _260_ net37 VGND VGND VPWR VPWR _055_ sky130_fd_sc_hd__a22o_1
X_340_ _119_ _120_ VGND VGND VPWR VPWR _121_ sky130_fd_sc_hd__xnor2_1
X_271_ net43 _064_ VGND VGND VPWR VPWR _065_ sky130_fd_sc_hd__nand2_1
X_469_ _219_ _213_ _220_ _215_ net102 VGND VGND VPWR VPWR _026_ sky130_fd_sc_hd__a32o_1
X_323_ rxtop.fsm_rx.BAUD_COUNTER\[2\] _104_ VGND VGND VPWR VPWR _107_ sky130_fd_sc_hd__or2_1
XFILLER_0_19_78 VGND VGND VPWR VPWR sky130_fd_sc_hd__fill_2
XFILLER_0_10_58 VGND VGND VPWR VPWR sky130_fd_sc_hd__decap_8
XTAP_TAPCELL_ROW_0_73 VGND VPWR sky130_fd_sc_hd__tapvpwrvgnd_1