*SPEF "ieee 1481-1999"
*DESIGN "UART"
*DATE "05:24:17 Friday July 17, 2026"
*VENDOR "The OpenROAD Project"
*PROGRAM "OpenROAD"
*VERSION "b16bda7e82721d10566ff7e2b68f1ff0be9f9e38"
*DESIGN_FLOW "NAME_SCOPE LOCAL" "PIN_CAP NONE"
*DIVIDER /
*DELIMITER :
*BUS_DELIMITER []
*T_UNIT 1 NS
*C_UNIT 1 PF
*R_UNIT 1 OHM
*L_UNIT 1 HENRY

*NAME_MAP
*3 clk
*4 div[0]
*5 div[10]
*6 div[11]
*7 div[1]
*8 div[2]
*9 div[3]
*10 div[4]
*11 div[5]
*12 div[6]
*13 div[7]
*14 div[8]
*15 div[9]
*16 framingError
*17 parityEnable
*18 parityError
*19 parityErrorValid
*20 parityType
*21 rst
*22 rx
*23 rx_busy
*24 rx_done
*25 rx_out[0]
*26 rx_out[1]
*27 rx_out[2]
*28 rx_out[3]
*29 rx_out[4]
*30 rx_out[5]
*31 rx_out[6]
*32 rx_out[7]
*33 tx
*34 tx_busy
*35 tx_data_valid
*36 tx_done
*37 tx_in[0]
*38 tx_in[1]
*39 tx_in[2]
*40 tx_in[3]
*41 tx_in[4]
*42 tx_in[5]
*43 tx_in[6]
*44 tx_in[7]
*45 BRG\.counter\[0\]
*46 BRG\.counter\[10\]
*47 BRG\.counter\[11\]
*48 BRG\.counter\[1\]
*49 BRG\.counter\[2\]
*50 BRG\.counter\[3\]
*51 BRG\.counter\[4\]
*52 BRG\.counter\[5\]
*53 BRG\.counter\[6\]
*54 BRG\.counter\[7\]
*55 BRG\.counter\[8\]
*56 BRG\.counter\[9\]
*57 _000_
*58 _001_
*59 _002_
*60 _003_
*61 _004_
*62 _005_
*63 _006_
*64 _007_
*65 _008_
*66 _009_
*67 _010_
*68 _011_
*69 _012_
*70 _013_
*71 _014_
*72 _015_
*73 _016_
*74 _017_
*75 _018_
*76 _019_
*77 _020_
*78 _021_
*79 _022_
*80 _023_
*81 _024_
*82 _025_
*83 _026_
*84 _027_
*85 _028_
*86 _029_
*87 _030_
*88 _031_
*89 _032_
*90 _033_
*91 _034_
*92 _035_
*93 _036_
*94 _037_
*95 _038_
*96 _039_
*97 _040_
*98 _041_
*99 _042_
*100 _043_
*101 _044_
*102 _045_
*103 _046_
*104 _047_
*105 _048_
*106 _049_
*107 _050_
*108 _051_
*109 _052_
*110 _053_
*111 _054_
*112 _055_
*113 _056_
*114 _057_
*115 _058_
*116 _059_
*117 _060_
*118 _061_
*119 _062_
*120 _063_
*121 _064_
*122 _065_
*123 _066_
*124 _067_
*125 _068_
*126 _069_
*127 _070_
*128 _071_
*129 _072_
*130 _073_
*131 _074_
*132 _075_
*133 _076_
*134 _077_
*135 _078_
*136 _079_
*137 _080_
*138 _081_
*139 _082_
*140 _083_
*141 _084_
*142 _085_
*143 _086_
*144 _087_
*145 _088_
*146 _089_
*147 _090_
*148 _091_
*149 _092_
*150 _093_
*151 _094_
*152 _095_
*153 _096_
*154 _097_
*155 _098_
*156 _099_
*157 _100_
*158 _101_
*159 _102_
*160 _103_
*161 _104_
*162 _105_
*163 _106_
*164 _107_
*165 _108_
*166 _109_
*167 _110_
*168 _111_
*169 _112_
*170 _113_
*171 _114_
*172 _115_
*173 _116_
*174 _117_
*175 _118_
*176 _119_
*177 _120_
*178 _121_
*179 _122_
*180 _123_
*181 _124_
*182 _125_
*183 _126_
*184 _127_
*185 _128_
*186 _129_
*187 _130_
*188 _131_
*189 _132_
*190 _133_
*191 _134_
*192 _135_
*193 _136_
*194 _137_
*195 _138_
*196 _139_
*197 _140_
*198 _141_
*199 _142_
*200 _143_
*201 _144_
*202 _145_
*203 _146_
*204 _147_
*205 _148_
*206 _149_
*207 _150_
*208 _151_
*209 _152_
*210 _153_
*211 _154_
*212 _155_
*213 _156_
*214 _157_
*215 _158_
*216 _159_
*217 _160_
*218 _161_
*219 _162_
*220 _163_
*221 _164_
*222 _165_
*223 _166_
*224 _167_
*225 _168_
*226 _169_
*227 _170_
*228 _171_
*229 _172_
*230 _173_
*231 _174_
*232 _175_
*233 _176_
*234 _177_
*235 _178_
*236 _179_
*237 _180_
*238 _181_
*239 _182_
*240 _183_
*241 _184_
*242 _185_
*243 _186_
*244 _187_
*245 _188_
*246 _189_
*247 _190_
*248 _191_
*249 _192_
*250 _193_
*251 _194_
*252 _195_
*253 _196_
*254 _197_
*255 _198_
*256 _199_
*257 _200_
*258 _201_
*259 _202_
*260 _203_
*261 _204_
*262 _205_
*263 _206_
*264 _207_
*265 _208_
*266 _209_
*267 _210_
*268 _211_
*269 _212_
*270 _213_
*271 _214_
*272 _215_
*273 _216_
*274 _217_
*275 _218_
*276 _219_
*277 _220_
*278 _221_
*279 _222_
*280 _223_
*281 _224_
*282 _225_
*283 _226_
*284 _227_
*285 _228_
*286 _229_
*287 _230_
*288 _231_
*289 _232_
*290 _233_
*291 _234_
*292 _235_
*293 _236_
*294 _237_
*295 _238_
*296 _239_
*297 _240_
*298 _241_
*299 _242_
*300 _243_
*301 _244_
*302 _245_
*303 _246_
*304 _247_
*305 _248_
*306 _249_
*307 _250_
*308 _251_
*309 _252_
*310 _253_
*311 _254_
*312 _255_
*313 _256_
*314 _257_
*315 _258_
*316 _259_
*317 _260_
*318 _261_
*319 _262_
*320 _263_
*321 _264_
*322 _265_
*323 _266_
*324 clknet_0_clk
*325 clknet_3_0__leaf_clk
*326 clknet_3_1__leaf_clk
*327 clknet_3_2__leaf_clk
*328 clknet_3_3__leaf_clk
*329 clknet_3_4__leaf_clk
*330 clknet_3_5__leaf_clk
*331 clknet_3_6__leaf_clk
*332 clknet_3_7__leaf_clk
*333 net1
*334 net10
*335 net100
*336 net101
*337 net102
*338 net103
*339 net104
*340 net105
*341 net106
*342 net107
*343 net108
*344 net109
*345 net11
*346 net110
*347 net111
*348 net112
*349 net113
*350 net114
*351 net115
*352 net116
*353 net117
*354 net118
*355 net119
*356 net12
*357 net120
*358 net121
*359 net13
*360 net14
*361 net15
*362 net16
*363 net17
*364 net18
*365 net19
*366 net2
*367 net20
*368 net21
*369 net22
*370 net23
*371 net24
*372 net25
*373 net26
*374 net27
*375 net28
*376 net29
*377 net3
*378 net30
*379 net31
*380 net32
*381 net33
*382 net34
*383 net35
*384 net36
*385 net37
*386 net38
*387 net39
*388 net4
*389 net40
*390 net41
*391 net42
*392 net43
*393 net44
*394 net45
*395 net46
*396 net47
*397 net48
*398 net49
*399 net5
*400 net50
*401 net51
*402 net52
*403 net53
*404 net54
*405 net55
*406 net56
*407 net57
*408 net58
*409 net59
*410 net6
*411 net60
*412 net61
*413 net62
*414 net63
*415 net64
*416 net65
*417 net66
*418 net67
*419 net68
*420 net69
*421 net7
*422 net70
*423 net71
*424 net72
*425 net73
*426 net74
*427 net75
*428 net76
*429 net77
*430 net78
*431 net79
*432 net8
*433 net80
*434 net81
*435 net82
*436 net83
*437 net84
*438 net85
*439 net86
*440 net87
*441 net88
*442 net89
*443 net9
*444 net90
*445 net91
*446 net92
*447 net93
*448 net94
*449 net95
*450 net96
*451 net97
*452 net98
*453 net99
*454 rx_synchronizer\.rx_out
*455 rx_synchronizer\.sync_stage1
*456 rxtop\.deserializer\.ptr\[0\]
*457 rxtop\.deserializer\.ptr\[1\]
*458 rxtop\.deserializer\.ptr\[2\]
*459 rxtop\.deserializer\.ptr\[3\]
*460 rxtop\.fsm_rx\.BAUD_COUNTER\[0\]
*461 rxtop\.fsm_rx\.BAUD_COUNTER\[1\]
*462 rxtop\.fsm_rx\.BAUD_COUNTER\[2\]
*463 rxtop\.fsm_rx\.BAUD_COUNTER\[3\]
*464 rxtop\.fsm_rx\.BAUD_COUNTER\[4\]
*465 rxtop\.fsm_rx\.BAUD_COUNTER_Next\[0\]
*466 rxtop\.fsm_rx\.BAUD_COUNTER_Next\[1\]
*467 rxtop\.fsm_rx\.BAUD_COUNTER_Next\[2\]
*468 rxtop\.fsm_rx\.BAUD_COUNTER_Next\[3\]
*469 rxtop\.fsm_rx\.BAUD_COUNTER_Next\[4\]
*470 rxtop\.fsm_rx\.Current\[0\]
*471 rxtop\.fsm_rx\.Current\[1\]
*472 rxtop\.fsm_rx\.Current\[2\]
*473 rxtop\.pCheck\.memory\[0\]
*474 rxtop\.pCheck\.memory\[1\]
*475 rxtop\.pCheck\.memory\[2\]
*476 rxtop\.pCheck\.memory\[3\]
*477 rxtop\.pCheck\.memory\[4\]
*478 rxtop\.pCheck\.memory\[5\]
*479 rxtop\.pCheck\.memory\[6\]
*480 rxtop\.pCheck\.memory\[7\]
*481 txtop\.data_mux_wire
*482 txtop\.fsm_tx\.BAUD_COUNTER\[0\]
*483 txtop\.fsm_tx\.BAUD_COUNTER\[1\]
*484 txtop\.fsm_tx\.BAUD_COUNTER\[2\]
*485 txtop\.fsm_tx\.BAUD_COUNTER\[3\]
*486 txtop\.fsm_tx\.BAUD_COUNTER\[4\]
*487 txtop\.fsm_tx\.BAUD_COUNTER_Next\[0\]
*488 txtop\.fsm_tx\.BAUD_COUNTER_Next\[1\]
*489 txtop\.fsm_tx\.BAUD_COUNTER_Next\[2\]
*490 txtop\.fsm_tx\.BAUD_COUNTER_Next\[3\]
*491 txtop\.fsm_tx\.BAUD_COUNTER_Next\[4\]
*492 txtop\.fsm_tx\.Current\[0\]
*493 txtop\.fsm_tx\.Current\[1\]
*494 txtop\.fsm_tx\.Current\[2\]
*495 txtop\.pCalc\.memory\[0\]
*496 txtop\.pCalc\.memory\[1\]
*497 txtop\.pCalc\.memory\[2\]
*498 txtop\.pCalc\.memory\[3\]
*499 txtop\.pCalc\.memory\[4\]
*500 txtop\.pCalc\.memory\[5\]
*501 txtop\.pCalc\.memory\[6\]
*502 txtop\.pCalc\.memory\[7\]
*503 txtop\.serializer\.memory\[0\]
*504 txtop\.serializer\.memory\[1\]
*505 txtop\.serializer\.memory\[2\]
*506 txtop\.serializer\.memory\[3\]
*507 txtop\.serializer\.memory\[4\]
*508 txtop\.serializer\.memory\[5\]
*509 txtop\.serializer\.memory\[6\]
*510 txtop\.serializer\.memory\[7\]
*511 txtop\.serializer\.ptr\[0\]
*512 txtop\.serializer\.ptr\[1\]
*513 txtop\.serializer\.ptr\[2\]
*514 txtop\.serializer\.ptr\[3\]
*515 ANTENNA_clkbuf_0_clk_A
*516 ANTENNA_clkbuf_3_0__f_clk_A
*517 ANTENNA_clkbuf_3_1__f_clk_A
*518 ANTENNA_clkbuf_3_2__f_clk_A
*519 ANTENNA_clkbuf_3_3__f_clk_A
*520 ANTENNA_clkbuf_3_4__f_clk_A
*521 ANTENNA_clkbuf_3_5__f_clk_A
*522 ANTENNA_clkbuf_3_6__f_clk_A
*523 ANTENNA_clkbuf_3_7__f_clk_A
*524 ANTENNA_input10_A
*525 ANTENNA_input11_A
*526 ANTENNA_input12_A
*527 ANTENNA_input13_A
*528 ANTENNA_input14_A
*529 ANTENNA_input15_A
*530 ANTENNA_input16_A
*531 ANTENNA_input17_A
*532 ANTENNA_input18_A
*533 ANTENNA_input19_A
*534 ANTENNA_input1_A
*535 ANTENNA_input20_A
*536 ANTENNA_input21_A
*537 ANTENNA_input22_A
*538 ANTENNA_input23_A
*539 ANTENNA_input24_A
*540 ANTENNA_input25_A
*541 ANTENNA_input2_A
*542 ANTENNA_input3_A
*543 ANTENNA_input4_A
*544 ANTENNA_input5_A
*545 ANTENNA_input6_A
*546 ANTENNA_input7_A
*547 ANTENNA_input8_A
*548 ANTENNA_input9_A
*549 FILLER_0_0_101
*550 FILLER_0_0_109
*551 FILLER_0_0_113
*552 FILLER_0_0_118
*553 FILLER_0_0_132
*554 FILLER_0_0_141
*555 FILLER_0_0_149
*556 FILLER_0_0_15
*557 FILLER_0_0_154
*558 FILLER_0_0_166
*559 FILLER_0_0_169
*560 FILLER_0_0_181
*561 FILLER_0_0_193
*562 FILLER_0_0_197
*563 FILLER_0_0_21
*564 FILLER_0_0_24
*565 FILLER_0_0_29
*566 FILLER_0_0_3
*567 FILLER_0_0_34
*568 FILLER_0_0_42
*569 FILLER_0_0_48
*570 FILLER_0_0_52
*571 FILLER_0_0_57
*572 FILLER_0_0_69
*573 FILLER_0_0_77
*574 FILLER_0_0_83
*575 FILLER_0_10_12
*576 FILLER_0_10_128
*577 FILLER_0_10_134
*578 FILLER_0_10_178
*579 FILLER_0_10_197
*580 FILLER_0_10_24
*581 FILLER_0_10_49
*582 FILLER_0_10_55
*583 FILLER_0_10_58
*584 FILLER_0_10_6
*585 FILLER_0_10_73
*586 FILLER_0_10_81
*587 FILLER_0_10_85
*588 FILLER_0_10_96
*589 FILLER_0_11_105
*590 FILLER_0_11_111
*591 FILLER_0_11_113
*592 FILLER_0_11_125
*593 FILLER_0_11_133
*594 FILLER_0_11_140
*595 FILLER_0_11_167
*596 FILLER_0_11_174
*597 FILLER_0_11_178
*598 FILLER_0_11_23
*599 FILLER_0_11_35
*600 FILLER_0_11_64
*601 FILLER_0_11_76
*602 FILLER_0_11_93
*603 FILLER_0_12_109
*604 FILLER_0_12_121
*605 FILLER_0_12_133
*606 FILLER_0_12_139
*607 FILLER_0_12_141
*608 FILLER_0_12_147
*609 FILLER_0_12_15
*610 FILLER_0_12_159
*611 FILLER_0_12_169
*612 FILLER_0_12_177
*613 FILLER_0_12_194
*614 FILLER_0_12_200
*615 FILLER_0_12_27
*616 FILLER_0_12_29
*617 FILLER_0_12_3
*618 FILLER_0_12_33
*619 FILLER_0_12_43
*620 FILLER_0_12_54
*621 FILLER_0_12_64
*622 FILLER_0_12_76
*623 FILLER_0_12_89
*624 FILLER_0_12_93
*625 FILLER_0_12_97
*626 FILLER_0_13_105
*627 FILLER_0_13_111
*628 FILLER_0_13_152
*629 FILLER_0_13_167
*630 FILLER_0_13_173
*631 FILLER_0_13_185
*632 FILLER_0_13_19
*633 FILLER_0_13_193
*634 FILLER_0_13_3
*635 FILLER_0_13_48
*636 FILLER_0_13_57
*637 FILLER_0_13_69
*638 FILLER_0_13_7
*639 FILLER_0_13_81
*640 FILLER_0_13_93
*641 FILLER_0_14_116
*642 FILLER_0_14_152
*643 FILLER_0_14_160
*644 FILLER_0_14_195
*645 FILLER_0_14_197
*646 FILLER_0_14_201
*647 FILLER_0_14_23
*648 FILLER_0_14_27
*649 FILLER_0_14_29
*650 FILLER_0_14_46
*651 FILLER_0_14_67
*652 FILLER_0_14_74
*653 FILLER_0_14_82
*654 FILLER_0_15_103
*655 FILLER_0_15_111
*656 FILLER_0_15_113
*657 FILLER_0_15_125
*658 FILLER_0_15_136
*659 FILLER_0_15_165
*660 FILLER_0_15_169
*661 FILLER_0_15_57
*662 FILLER_0_15_6
*663 FILLER_0_15_63
*664 FILLER_0_16_111
*665 FILLER_0_16_120
*666 FILLER_0_16_130
*667 FILLER_0_16_138
*668 FILLER_0_16_141
*669 FILLER_0_16_153
*670 FILLER_0_16_157
*671 FILLER_0_16_166
*672 FILLER_0_16_170
*673 FILLER_0_16_179
*674 FILLER_0_16_190
*675 FILLER_0_16_197
*676 FILLER_0_16_201
*677 FILLER_0_16_25
*678 FILLER_0_16_29
*679 FILLER_0_16_6
*680 FILLER_0_16_63
*681 FILLER_0_16_75
*682 FILLER_0_16_83
*683 FILLER_0_16_89
*684 FILLER_0_16_95
*685 FILLER_0_16_99
*686 FILLER_0_17_145
*687 FILLER_0_17_162
*688 FILLER_0_17_169
*689 FILLER_0_17_173
*690 FILLER_0_17_182
*691 FILLER_0_17_200
*692 FILLER_0_17_54
*693 FILLER_0_17_57
*694 FILLER_0_17_69
*695 FILLER_0_17_77
*696 FILLER_0_17_83
*697 FILLER_0_17_89
*698 FILLER_0_18_106
*699 FILLER_0_18_11
*700 FILLER_0_18_118
*701 FILLER_0_18_139
*702 FILLER_0_18_144
*703 FILLER_0_18_197
*704 FILLER_0_18_23
*705 FILLER_0_18_27
*706 FILLER_0_18_29
*707 FILLER_0_18_3
*708 FILLER_0_18_53
*709 FILLER_0_18_7
*710 FILLER_0_18_81
*711 FILLER_0_18_93
*712 FILLER_0_19_10
*713 FILLER_0_19_113
*714 FILLER_0_19_121
*715 FILLER_0_19_133
*716 FILLER_0_19_155
*717 FILLER_0_19_164
*718 FILLER_0_19_199
*719 FILLER_0_19_22
*720 FILLER_0_19_6
*721 FILLER_0_19_64
*722 FILLER_0_19_72
*723 FILLER_0_19_78
*724 FILLER_0_1_102
*725 FILLER_0_1_110
*726 FILLER_0_1_155
*727 FILLER_0_1_167
*728 FILLER_0_1_195
*729 FILLER_0_1_201
*730 FILLER_0_1_3
*731 FILLER_0_1_55
*732 FILLER_0_1_77
*733 FILLER_0_20_109
*734 FILLER_0_20_130
*735 FILLER_0_20_138
*736 FILLER_0_20_141
*737 FILLER_0_20_180
*738 FILLER_0_20_192
*739 FILLER_0_20_197
*740 FILLER_0_20_27
*741 FILLER_0_20_29
*742 FILLER_0_20_37
*743 FILLER_0_20_58
*744 FILLER_0_20_6
*745 FILLER_0_20_62
*746 FILLER_0_20_93
*747 FILLER_0_21_110
*748 FILLER_0_21_113
*749 FILLER_0_21_124
*750 FILLER_0_21_136
*751 FILLER_0_21_166
*752 FILLER_0_21_177
*753 FILLER_0_21_201
*754 FILLER_0_21_34
*755 FILLER_0_21_44
*756 FILLER_0_21_50
*757 FILLER_0_21_57
*758 FILLER_0_21_69
*759 FILLER_0_21_98
*760 FILLER_0_22_108
*761 FILLER_0_22_114
*762 FILLER_0_22_135
*763 FILLER_0_22_139
*764 FILLER_0_22_15
*765 FILLER_0_22_197
*766 FILLER_0_22_201
*767 FILLER_0_22_27
*768 FILLER_0_22_29
*769 FILLER_0_22_3
*770 FILLER_0_22_41
*771 FILLER_0_22_62
*772 FILLER_0_22_67
*773 FILLER_0_22_77
*774 FILLER_0_22_83
*775 FILLER_0_22_92
*776 FILLER_0_22_96
*777 FILLER_0_23_106
*778 FILLER_0_23_110
*779 FILLER_0_23_113
*780 FILLER_0_23_141
*781 FILLER_0_23_153
*782 FILLER_0_23_159
*783 FILLER_0_23_169
*784 FILLER_0_23_17
*785 FILLER_0_23_178
*786 FILLER_0_23_186
*787 FILLER_0_23_196
*788 FILLER_0_23_3
*789 FILLER_0_23_41
*790 FILLER_0_23_53
*791 FILLER_0_23_57
*792 FILLER_0_23_9
*793 FILLER_0_24_118
*794 FILLER_0_24_191
*795 FILLER_0_24_195
*796 FILLER_0_24_197
*797 FILLER_0_24_29
*798 FILLER_0_24_40
*799 FILLER_0_24_55
*800 FILLER_0_24_65
*801 FILLER_0_24_69
*802 FILLER_0_24_78
*803 FILLER_0_24_88
*804 FILLER_0_24_96
*805 FILLER_0_25_105
*806 FILLER_0_25_111
*807 FILLER_0_25_113
*808 FILLER_0_25_117
*809 FILLER_0_25_120
*810 FILLER_0_25_125
*811 FILLER_0_25_131
*812 FILLER_0_25_140
*813 FILLER_0_25_152
*814 FILLER_0_25_158
*815 FILLER_0_25_167
*816 FILLER_0_25_169
*817 FILLER_0_25_18
*818 FILLER_0_25_3
*819 FILLER_0_25_30
*820 FILLER_0_25_42
*821 FILLER_0_25_54
*822 FILLER_0_25_57
*823 FILLER_0_25_69
*824 FILLER_0_25_81
*825 FILLER_0_25_93
*826 FILLER_0_26_10
*827 FILLER_0_26_101
*828 FILLER_0_26_131
*829 FILLER_0_26_139
*830 FILLER_0_26_141
*831 FILLER_0_26_149
*832 FILLER_0_26_16
*833 FILLER_0_26_167
*834 FILLER_0_26_194
*835 FILLER_0_26_197
*836 FILLER_0_26_201
*837 FILLER_0_26_21
*838 FILLER_0_26_26
*839 FILLER_0_26_29
*840 FILLER_0_26_41
*841 FILLER_0_26_49
*842 FILLER_0_26_6
*843 FILLER_0_26_70
*844 FILLER_0_26_89
*845 FILLER_0_27_167
*846 FILLER_0_27_169
*847 FILLER_0_27_191
*848 FILLER_0_27_28
*849 FILLER_0_27_43
*850 FILLER_0_27_55
*851 FILLER_0_27_57
*852 FILLER_0_27_65
*853 FILLER_0_28_101
*854 FILLER_0_28_117
*855 FILLER_0_28_125
*856 FILLER_0_28_133
*857 FILLER_0_28_139
*858 FILLER_0_28_141
*859 FILLER_0_28_149
*860 FILLER_0_28_15
*861 FILLER_0_28_167
*862 FILLER_0_28_176
*863 FILLER_0_28_193
*864 FILLER_0_28_197
*865 FILLER_0_28_201
*866 FILLER_0_28_23
*867 FILLER_0_28_27
*868 FILLER_0_28_3
*869 FILLER_0_28_37
*870 FILLER_0_28_48
*871 FILLER_0_28_60
*872 FILLER_0_28_72
*873 FILLER_0_28_76
*874 FILLER_0_28_82
*875 FILLER_0_28_89
*876 FILLER_0_29_100
*877 FILLER_0_29_113
*878 FILLER_0_29_125
*879 FILLER_0_29_137
*880 FILLER_0_29_145
*881 FILLER_0_29_15
*882 FILLER_0_29_167
*883 FILLER_0_29_177
*884 FILLER_0_29_200
*885 FILLER_0_29_27
*886 FILLER_0_29_3
*887 FILLER_0_29_35
*888 FILLER_0_29_41
*889 FILLER_0_29_53
*890 FILLER_0_29_64
*891 FILLER_0_29_76
*892 FILLER_0_29_88
*893 FILLER_0_2_134
*894 FILLER_0_2_15
*895 FILLER_0_2_164
*896 FILLER_0_2_185
*897 FILLER_0_2_19
*898 FILLER_0_2_201
*899 FILLER_0_2_27
*900 FILLER_0_2_3
*901 FILLER_0_2_62
*902 FILLER_0_2_85
*903 FILLER_0_30_105
*904 FILLER_0_30_11
*905 FILLER_0_30_124
*906 FILLER_0_30_132
*907 FILLER_0_30_141
*908 FILLER_0_30_153
*909 FILLER_0_30_19
*910 FILLER_0_30_193
*911 FILLER_0_30_197
*912 FILLER_0_30_201
*913 FILLER_0_30_27
*914 FILLER_0_30_3
*915 FILLER_0_30_35
*916 FILLER_0_30_55
*917 FILLER_0_30_7
*918 FILLER_0_30_78
*919 FILLER_0_30_85
*920 FILLER_0_30_97
*921 FILLER_0_31_102
*922 FILLER_0_31_113
*923 FILLER_0_31_123
*924 FILLER_0_31_148
*925 FILLER_0_31_156
*926 FILLER_0_31_167
*927 FILLER_0_31_169
*928 FILLER_0_31_19
*929 FILLER_0_31_198
*930 FILLER_0_31_23
*931 FILLER_0_31_31
*932 FILLER_0_31_44
*933 FILLER_0_31_57
*934 FILLER_0_31_6
*935 FILLER_0_32_105
*936 FILLER_0_32_109
*937 FILLER_0_32_115
*938 FILLER_0_32_125
*939 FILLER_0_32_137
*940 FILLER_0_32_141
*941 FILLER_0_32_15
*942 FILLER_0_32_153
*943 FILLER_0_32_157
*944 FILLER_0_32_165
*945 FILLER_0_32_169
*946 FILLER_0_32_192
*947 FILLER_0_32_197
*948 FILLER_0_32_201
*949 FILLER_0_32_27
*950 FILLER_0_32_29
*951 FILLER_0_32_3
*952 FILLER_0_32_41
*953 FILLER_0_32_53
*954 FILLER_0_32_65
*955 FILLER_0_32_77
*956 FILLER_0_32_83
*957 FILLER_0_32_85
*958 FILLER_0_32_98
*959 FILLER_0_33_106
*960 FILLER_0_33_113
*961 FILLER_0_33_118
*962 FILLER_0_33_125
*963 FILLER_0_33_132
*964 FILLER_0_33_139
*965 FILLER_0_33_141
*966 FILLER_0_33_145
*967 FILLER_0_33_15
*968 FILLER_0_33_163
*969 FILLER_0_33_167
*970 FILLER_0_33_181
*971 FILLER_0_33_193
*972 FILLER_0_33_197
*973 FILLER_0_33_201
*974 FILLER_0_33_23
*975 FILLER_0_33_29
*976 FILLER_0_33_3
*977 FILLER_0_33_34
*978 FILLER_0_33_41
*979 FILLER_0_33_53
*980 FILLER_0_33_57
*981 FILLER_0_33_62
*982 FILLER_0_33_69
*983 FILLER_0_33_77
*984 FILLER_0_33_83
*985 FILLER_0_33_85
*986 FILLER_0_33_90
*987 FILLER_0_33_94
*988 FILLER_0_3_109
*989 FILLER_0_3_113
*990 FILLER_0_3_119
*991 FILLER_0_3_123
*992 FILLER_0_3_135
*993 FILLER_0_3_144
*994 FILLER_0_3_148
*995 FILLER_0_3_15
*996 FILLER_0_3_153
*997 FILLER_0_3_167
*998 FILLER_0_3_201
*999 FILLER_0_3_3
*1000 FILLER_0_3_30
*1001 FILLER_0_3_42
*1002 FILLER_0_3_54
*1003 FILLER_0_3_57
*1004 FILLER_0_3_69
*1005 FILLER_0_4_107
*1006 FILLER_0_4_122
*1007 FILLER_0_4_134
*1008 FILLER_0_4_141
*1009 FILLER_0_4_159
*1010 FILLER_0_4_171
*1011 FILLER_0_4_195
*1012 FILLER_0_4_200
*1013 FILLER_0_4_23
*1014 FILLER_0_4_27
*1015 FILLER_0_4_41
*1016 FILLER_0_4_53
*1017 FILLER_0_4_75
*1018 FILLER_0_4_83
*1019 FILLER_0_4_85
*1020 FILLER_0_4_98
*1021 FILLER_0_5_134
*1022 FILLER_0_5_146
*1023 FILLER_0_5_153
*1024 FILLER_0_5_165
*1025 FILLER_0_5_169
*1026 FILLER_0_5_187
*1027 FILLER_0_5_3
*1028 FILLER_0_5_69
*1029 FILLER_0_5_7
*1030 FILLER_0_5_77
*1031 FILLER_0_5_83
*1032 FILLER_0_6_109
*1033 FILLER_0_6_121
*1034 FILLER_0_6_132
*1035 FILLER_0_6_141
*1036 FILLER_0_6_15
*1037 FILLER_0_6_161
*1038 FILLER_0_6_169
*1039 FILLER_0_6_175
*1040 FILLER_0_6_200
*1041 FILLER_0_6_27
*1042 FILLER_0_6_29
*1043 FILLER_0_6_3
*1044 FILLER_0_6_48
*1045 FILLER_0_6_61
*1046 FILLER_0_6_73
*1047 FILLER_0_6_82
*1048 FILLER_0_7_11
*1049 FILLER_0_7_110
*1050 FILLER_0_7_117
*1051 FILLER_0_7_121
*1052 FILLER_0_7_140
*1053 FILLER_0_7_144
*1054 FILLER_0_7_15
*1055 FILLER_0_7_160
*1056 FILLER_0_7_164
*1057 FILLER_0_7_169
*1058 FILLER_0_7_175
*1059 FILLER_0_7_192
*1060 FILLER_0_7_25
*1061 FILLER_0_7_3
*1062 FILLER_0_7_41
*1063 FILLER_0_7_50
*1064 FILLER_0_7_55
*1065 FILLER_0_7_7
*1066 FILLER_0_7_74
*1067 FILLER_0_7_82
*1068 FILLER_0_8_121
*1069 FILLER_0_8_137
*1070 FILLER_0_8_145
*1071 FILLER_0_8_152
*1072 FILLER_0_8_164
*1073 FILLER_0_8_178
*1074 FILLER_0_8_186
*1075 FILLER_0_8_197
*1076 FILLER_0_8_201
*1077 FILLER_0_8_23
*1078 FILLER_0_8_27
*1079 FILLER_0_8_29
*1080 FILLER_0_8_82
*1081 FILLER_0_8_88
*1082 FILLER_0_8_92
*1083 FILLER_0_8_96
*1084 FILLER_0_9_10
*1085 FILLER_0_9_106
*1086 FILLER_0_9_121
*1087 FILLER_0_9_142
*1088 FILLER_0_9_153
*1089 FILLER_0_9_165
*1090 FILLER_0_9_169
*1091 FILLER_0_9_174
*1092 FILLER_0_9_29
*1093 FILLER_0_9_50
*1094 FILLER_0_9_57
*1095 FILLER_0_9_6
*1096 FILLER_0_9_65
*1097 FILLER_0_9_94
*1098 PHY_EDGE_ROW_0_Left_34
*1099 PHY_EDGE_ROW_0_Right_0
*1100 PHY_EDGE_ROW_10_Left_44
*1101 PHY_EDGE_ROW_10_Right_10
*1102 PHY_EDGE_ROW_11_Left_45
*1103 PHY_EDGE_ROW_11_Right_11
*1104 PHY_EDGE_ROW_12_Left_46
*1105 PHY_EDGE_ROW_12_Right_12
*1106 PHY_EDGE_ROW_13_Left_47
*1107 PHY_EDGE_ROW_13_Right_13
*1108 PHY_EDGE_ROW_14_Left_48
*1109 PHY_EDGE_ROW_14_Right_14
*1110 PHY_EDGE_ROW_15_Left_49
*1111 PHY_EDGE_ROW_15_Right_15
*1112 PHY_EDGE_ROW_16_Left_50
*1113 PHY_EDGE_ROW_16_Right_16
*1114 PHY_EDGE_ROW_17_Left_51
*1115 PHY_EDGE_ROW_17_Right_17
*1116 PHY_EDGE_ROW_18_Left_52
*1117 PHY_EDGE_ROW_18_Right_18
*1118 PHY_EDGE_ROW_19_Left_53
*1119 PHY_EDGE_ROW_19_Right_19
*1120 PHY_EDGE_ROW_1_Left_35
*1121 PHY_EDGE_ROW_1_Right_1
*1122 PHY_EDGE_ROW_20_Left_54
*1123 PHY_EDGE_ROW_20_Right_20
*1124 PHY_EDGE_ROW_21_Left_55
*1125 PHY_EDGE_ROW_21_Right_21
*1126 PHY_EDGE_ROW_22_Left_56
*1127 PHY_EDGE_ROW_22_Right_22
*1128 PHY_EDGE_ROW_23_Left_57
*1129 PHY_EDGE_ROW_23_Right_23
*1130 PHY_EDGE_ROW_24_Left_58
*1131 PHY_EDGE_ROW_24_Right_24
*1132 PHY_EDGE_ROW_25_Left_59
*1133 PHY_EDGE_ROW_25_Right_25
*1134 PHY_EDGE_ROW_26_Left_60
*1135 PHY_EDGE_ROW_26_Right_26
*1136 PHY_EDGE_ROW_27_Left_61
*1137 PHY_EDGE_ROW_27_Right_27
*1138 PHY_EDGE_ROW_28_Left_62
*1139 PHY_EDGE_ROW_28_Right_28
*1140 PHY_EDGE_ROW_29_Left_63
*1141 PHY_EDGE_ROW_29_Right_29
*1142 PHY_EDGE_ROW_2_Left_36
*1143 PHY_EDGE_ROW_2_Right_2
*1144 PHY_EDGE_ROW_30_Left_64
*1145 PHY_EDGE_ROW_30_Right_30
*1146 PHY_EDGE_ROW_31_Left_65
*1147 PHY_EDGE_ROW_31_Right_31
*1148 PHY_EDGE_ROW_32_Left_66
*1149 PHY_EDGE_ROW_32_Right_32
*1150 PHY_EDGE_ROW_33_Left_67
*1151 PHY_EDGE_ROW_33_Right_33
*1152 PHY_EDGE_ROW_3_Left_37
*1153 PHY_EDGE_ROW_3_Right_3
*1154 PHY_EDGE_ROW_4_Left_38
*1155 PHY_EDGE_ROW_4_Right_4
*1156 PHY_EDGE_ROW_5_Left_39
*1157 PHY_EDGE_ROW_5_Right_5
*1158 PHY_EDGE_ROW_6_Left_40
*1159 PHY_EDGE_ROW_6_Right_6
*1160 PHY_EDGE_ROW_7_Left_41
*1161 PHY_EDGE_ROW_7_Right_7
*1162 PHY_EDGE_ROW_8_Left_42
*1163 PHY_EDGE_ROW_8_Right_8
*1164 PHY_EDGE_ROW_9_Left_43
*1165 PHY_EDGE_ROW_9_Right_9
*1166 TAP_TAPCELL_ROW_0_68
*1167 TAP_TAPCELL_ROW_0_69
*1168 TAP_TAPCELL_ROW_0_70
*1169 TAP_TAPCELL_ROW_0_71
*1170 TAP_TAPCELL_ROW_0_72
*1171 TAP_TAPCELL_ROW_0_73
*1172 TAP_TAPCELL_ROW_0_74
*1173 TAP_TAPCELL_ROW_10_106
*1174 TAP_TAPCELL_ROW_10_107
*1175 TAP_TAPCELL_ROW_10_108
*1176 TAP_TAPCELL_ROW_10_109
*1177 TAP_TAPCELL_ROW_11_110
*1178 TAP_TAPCELL_ROW_11_111
*1179 TAP_TAPCELL_ROW_11_112
*1180 TAP_TAPCELL_ROW_12_113
*1181 TAP_TAPCELL_ROW_12_114
*1182 TAP_TAPCELL_ROW_12_115
*1183 TAP_TAPCELL_ROW_12_116
*1184 TAP_TAPCELL_ROW_13_117
*1185 TAP_TAPCELL_ROW_13_118
*1186 TAP_TAPCELL_ROW_13_119
*1187 TAP_TAPCELL_ROW_14_120
*1188 TAP_TAPCELL_ROW_14_121
*1189 TAP_TAPCELL_ROW_14_122
*1190 TAP_TAPCELL_ROW_14_123
*1191 TAP_TAPCELL_ROW_15_124
*1192 TAP_TAPCELL_ROW_15_125
*1193 TAP_TAPCELL_ROW_15_126
*1194 TAP_TAPCELL_ROW_16_127
*1195 TAP_TAPCELL_ROW_16_128
*1196 TAP_TAPCELL_ROW_16_129
*1197 TAP_TAPCELL_ROW_16_130
*1198 TAP_TAPCELL_ROW_17_131
*1199 TAP_TAPCELL_ROW_17_132
*1200 TAP_TAPCELL_ROW_17_133
*1201 TAP_TAPCELL_ROW_18_134
*1202 TAP_TAPCELL_ROW_18_135
*1203 TAP_TAPCELL_ROW_18_136
*1204 TAP_TAPCELL_ROW_18_137
*1205 TAP_TAPCELL_ROW_19_138
*1206 TAP_TAPCELL_ROW_19_139
*1207 TAP_TAPCELL_ROW_19_140
*1208 TAP_TAPCELL_ROW_1_75
*1209 TAP_TAPCELL_ROW_1_76
*1210 TAP_TAPCELL_ROW_1_77
*1211 TAP_TAPCELL_ROW_20_141
*1212 TAP_TAPCELL_ROW_20_142
*1213 TAP_TAPCELL_ROW_20_143
*1214 TAP_TAPCELL_ROW_20_144
*1215 TAP_TAPCELL_ROW_21_145
*1216 TAP_TAPCELL_ROW_21_146
*1217 TAP_TAPCELL_ROW_21_147
*1218 TAP_TAPCELL_ROW_22_148
*1219 TAP_TAPCELL_ROW_22_149
*1220 TAP_TAPCELL_ROW_22_150
*1221 TAP_TAPCELL_ROW_22_151
*1222 TAP_TAPCELL_ROW_23_152
*1223 TAP_TAPCELL_ROW_23_153
*1224 TAP_TAPCELL_ROW_23_154
*1225 TAP_TAPCELL_ROW_24_155
*1226 TAP_TAPCELL_ROW_24_156
*1227 TAP_TAPCELL_ROW_24_157
*1228 TAP_TAPCELL_ROW_24_158
*1229 TAP_TAPCELL_ROW_25_159
*1230 TAP_TAPCELL_ROW_25_160
*1231 TAP_TAPCELL_ROW_25_161
*1232 TAP_TAPCELL_ROW_26_162
*1233 TAP_TAPCELL_ROW_26_163
*1234 TAP_TAPCELL_ROW_26_164
*1235 TAP_TAPCELL_ROW_26_165
*1236 TAP_TAPCELL_ROW_27_166
*1237 TAP_TAPCELL_ROW_27_167
*1238 TAP_TAPCELL_ROW_27_168
*1239 TAP_TAPCELL_ROW_28_169
*1240 TAP_TAPCELL_ROW_28_170
*1241 TAP_TAPCELL_ROW_28_171
*1242 TAP_TAPCELL_ROW_28_172
*1243 TAP_TAPCELL_ROW_29_173
*1244 TAP_TAPCELL_ROW_29_174
*1245 TAP_TAPCELL_ROW_29_175
*1246 TAP_TAPCELL_ROW_2_78
*1247 TAP_TAPCELL_ROW_2_79
*1248 TAP_TAPCELL_ROW_2_80
*1249 TAP_TAPCELL_ROW_2_81
*1250 TAP_TAPCELL_ROW_30_176
*1251 TAP_TAPCELL_ROW_30_177
*1252 TAP_TAPCELL_ROW_30_178
*1253 TAP_TAPCELL_ROW_30_179
*1254 TAP_TAPCELL_ROW_31_180
*1255 TAP_TAPCELL_ROW_31_181
*1256 TAP_TAPCELL_ROW_31_182
*1257 TAP_TAPCELL_ROW_32_183
*1258 TAP_TAPCELL_ROW_32_184
*1259 TAP_TAPCELL_ROW_32_185
*1260 TAP_TAPCELL_ROW_32_186
*1261 TAP_TAPCELL_ROW_33_187
*1262 TAP_TAPCELL_ROW_33_188
*1263 TAP_TAPCELL_ROW_33_189
*1264 TAP_TAPCELL_ROW_33_190
*1265 TAP_TAPCELL_ROW_33_191
*1266 TAP_TAPCELL_ROW_33_192
*1267 TAP_TAPCELL_ROW_33_193
*1268 TAP_TAPCELL_ROW_3_82
*1269 TAP_TAPCELL_ROW_3_83
*1270 TAP_TAPCELL_ROW_3_84
*1271 TAP_TAPCELL_ROW_4_85
*1272 TAP_TAPCELL_ROW_4_86
*1273 TAP_TAPCELL_ROW_4_87
*1274 TAP_TAPCELL_ROW_4_88
*1275 TAP_TAPCELL_ROW_5_89
*1276 TAP_TAPCELL_ROW_5_90
*1277 TAP_TAPCELL_ROW_5_91
*1278 TAP_TAPCELL_ROW_6_92
*1279 TAP_TAPCELL_ROW_6_93
*1280 TAP_TAPCELL_ROW_6_94
*1281 TAP_TAPCELL_ROW_6_95
*1282 TAP_TAPCELL_ROW_7_96
*1283 TAP_TAPCELL_ROW_7_97
*1284 TAP_TAPCELL_ROW_7_98
*1285 TAP_TAPCELL_ROW_8_100
*1286 TAP_TAPCELL_ROW_8_101
*1287 TAP_TAPCELL_ROW_8_102
*1288 TAP_TAPCELL_ROW_8_99
*1289 TAP_TAPCELL_ROW_9_103
*1290 TAP_TAPCELL_ROW_9_104
*1291 TAP_TAPCELL_ROW_9_105
*1292 _267_
*1293 _268_
*1294 _269_
*1295 _270_
*1296 _271_
*1297 _272_
*1298 _273_
*1299 _274_
*1300 _275_
*1301 _276_
*1302 _277_
*1303 _278_
*1304 _279_
*1305 _280_
*1306 _281_
*1307 _282_
*1308 _283_
*1309 _284_
*1310 _285_
*1311 _286_
*1312 _287_
*1313 _288_
*1314 _289_
*1315 _290_
*1316 _291_
*1317 _292_
*1318 _293_
*1319 _294_
*1320 _295_
*1321 _296_
*1322 _297_
*1323 _298_
*1324 _299_
*1325 _300_
*1326 _301_
*1327 _302_
*1328 _303_
*1329 _304_
*1330 _305_
*1331 _306_
*1332 _307_
*1333 _308_
*1334 _309_
*1335 _310_
*1336 _311_
*1337 _312_
*1338 _313_
*1339 _314_
*1340 _315_
*1341 _316_
*1342 _317_
*1343 _318_
*1344 _319_
*1345 _320_
*1346 _321_
*1347 _322_
*1348 _323_
*1349 _324_
*1350 _325_
*1351 _326_
*1352 _327_
*1353 _328_
*1354 _329_
*1355 _330_
*1356 _331_
*1357 _332_
*1358 _333_
*1359 _334_
*1360 _335_
*1361 _336_
*1362 _337_
*1363 _338_
*1364 _339_
*1365 _340_
*1366 _341_
*1367 _342_
*1368 _343_
*1369 _344_
*1370 _345_
*1371 _346_
*1372 _347_
*1373 _348_
*1374 _349_
*1375 _350_
*1376 _351_
*1377 _352_
*1378 _353_
*1379 _354_
*1380 _355_
*1381 _356_
*1382 _357_
*1383 _358_
*1384 _359_
*1385 _360_
*1386 _361_
*1387 _362_
*1388 _363_
*1389 _364_
*1390 _365_
*1391 _366_
*1392 _367_
*1393 _368_
*1394 _369_
*1395 _370_
*1396 _371_
*1397 _372_
*1398 _373_
*1399 _374_
*1400 _375_
*1401 _376_
*1402 _377_
*1403 _378_
*1404 _379_
*1405 _380_
*1406 _381_
*1407 _382_
*1408 _383_
*1409 _384_
*1410 _385_
*1411 _386_
*1412 _387_
*1413 _388_
*1414 _389_
*1415 _390_
*1416 _391_
*1417 _392_
*1418 _393_
*1419 _394_
*1420 _395_
*1421 _396_
*1422 _397_
*1423 _398_
*1424 _399_
*1425 _400_
*1426 _401_
*1427 _402_
*1428 _403_
*1429 _404_
*1430 _405_
*1431 _406_
*1432 _407_
*1433 _408_
*1434 _409_
*1435 _410_
*1436 _411_
*1437 _412_
*1438 _413_
*1439 _414_
*1440 _415_
*1441 _416_
*1442 _417_
*1443 _418_
*1444 _419_
*1445 _420_
*1446 _421_
*1447 _422_
*1448 _423_
*1449 _424_
*1450 _425_
*1451 _426_
*1452 _427_
*1453 _428_
*1454 _429_
*1455 _430_
*1456 _431_
*1457 _432_
*1458 _433_
*1459 _434_
*1460 _435_
*1461 _436_
*1462 _437_
*1463 _438_
*1464 _439_
*1465 _440_
*1466 _441_
*1467 _442_
*1468 _443_
*1469 _444_
*1470 _445_
*1471 _446_
*1472 _447_
*1473 _448_
*1474 _449_
*1475 _450_
*1476 _451_
*1477 _452_
*1478 _453_
*1479 _454_
*1480 _455_
*1481 _456_
*1482 _457_
*1483 _458_
*1484 _459_
*1485 _460_
*1486 _461_
*1487 _462_
*1488 _463_
*1489 _464_
*1490 _465_
*1491 _466_
*1492 _467_
*1493 _468_
*1494 _469_
*1495 _470_
*1496 _471_
*1497 _472_
*1498 _473_
*1499 _474_
*1500 _475_
*1501 _476_
*1502 _477_
*1503 _478_
*1504 _479_
*1505 _480_
*1506 _481_
*1507 _482_
*1508 _483_
*1509 _484_
*1510 _485_
*1511 _486_
*1512 _487_
*1513 _488_
*1514 _489_
*1515 _490_
*1516 _491_
*1517 _492_
*1518 _493_
*1519 _494_
*1520 _495_
*1521 _496_
*1522 _497_
*1523 _498_
*1524 _499_
*1525 _500_
*1526 _501_
*1527 _502_
*1528 _503_
*1529 _504_
*1530 _505_
*1531 _506_
*1532 _507_
*1533 _508_
*1534 _509_
*1535 _510_
*1536 _511_
*1537 _512_
*1538 _513_
*1539 _514_
*1540 _515_
*1541 _516_
*1542 _517_
*1543 _518_
*1544 _519_
*1545 _520_
*1546 _521_
*1547 _522_
*1548 _523_
*1549 _524_
*1550 _525_
*1551 _526_
*1552 _527_
*1553 _528_
*1554 _529_
*1555 _530_
*1556 _531_
*1557 _532_
*1558 _533_
*1559 _534_
*1560 _535_
*1561 _536_
*1562 _537_
*1563 _538_
*1564 _539_
*1565 _540_
*1566 _541_
*1567 _542_
*1568 _543_
*1569 _544_
*1570 _545_
*1571 _546_
*1572 _547_
*1573 _548_
*1574 _549_
*1575 _550_
*1576 _551_
*1577 _552_
*1578 _553_
*1579 _554_
*1580 _555_
*1581 _556_
*1582 _557_
*1583 _558_
*1584 _559_
*1585 _560_
*1586 _561_
*1587 _562_
*1588 _563_
*1589 _564_
*1590 _565_
*1591 _566_
*1592 _567_
*1593 _568_
*1594 _569_
*1595 _570_
*1596 _571_
*1597 _572_
*1598 _573_
*1599 _574_
*1600 _575_
*1601 _576_
*1602 _577_
*1603 _578_
*1604 _579_
*1605 _580_
*1606 _581_
*1607 _582_
*1608 _583_
*1609 _584_
*1610 _585_
*1611 _586_
*1612 _587_
*1613 _588_
*1614 _589_
*1615 _590_
*1616 _591_
*1617 _592_
*1618 _593_
*1619 _594_
*1620 _595_
*1621 _596_
*1622 _597_
*1623 _598_
*1624 _599_
*1625 _600_
*1626 _601_
*1627 _602_
*1628 _603_
*1629 _604_
*1630 _605_
*1631 _606_
*1632 _607_
*1633 _608_
*1634 _609_
*1635 _610_
*1636 _611_
*1637 _612_
*1638 _613_
*1639 _614_
*1640 _615_
*1641 _616_
*1642 _617_
*1643 _618_
*1644 _619_
*1645 _620_
*1646 _621_
*1647 _622_
*1648 clkbuf_0_clk
*1649 clkbuf_3_0__f_clk
*1650 clkbuf_3_1__f_clk
*1651 clkbuf_3_2__f_clk
*1652 clkbuf_3_3__f_clk
*1653 clkbuf_3_4__f_clk
*1654 clkbuf_3_5__f_clk
*1655 clkbuf_3_6__f_clk
*1656 clkbuf_3_7__f_clk
*1657 clkload0
*1658 clkload1
*1659 clkload2
*1660 clkload3
*1661 clkload4
*1662 clkload5
*1663 clkload6